.SUBCKT A2O1A1Ixp33_ASAP7_75t_R A1 A2 B C VDD VSS Y
MM7 net06 B VSS VSS nmos_rvt w=81.0n l=20n nfin=3
MM2 net06 C Y VSS nmos_rvt w=81.0n l=20n nfin=3
MM1 VSS A2 net015 VSS nmos_rvt w=81.0n l=20n nfin=3
MM0 net015 A1 net06 VSS nmos_rvt w=81.0n l=20n nfin=3
MM6 Y C VDD VDD pmos_rvt w=54.0n l=20n nfin=2
MM5 Y B net2 VDD pmos_rvt w=81.0n l=20n nfin=3
MM4 net2 A2 VDD VDD pmos_rvt w=81.0n l=20n nfin=3
MM3 VDD A1 net2 VDD pmos_rvt w=81.0n l=20n nfin=3
.ENDS


.SUBCKT A2O1A1O1Ixp25_ASAP7_75t_R A1 A2 B C D VDD VSS Y
MM5 VDD A1 net4 VDD pmos_rvt w=81.0n l=20n nfin=3
MM8 VDD C net15 VDD pmos_rvt w=81.0n l=20n nfin=3
MM6 VDD A2 net4 VDD pmos_rvt w=81.0n l=20n nfin=3
MM9 Y D net15 VDD pmos_rvt w=81.0n l=20n nfin=3
MM7 net4 B net15 VDD pmos_rvt w=81.0n l=20n nfin=3
MM4 VSS D Y VSS nmos_rvt w=81.0n l=20n nfin=3
MM1 net25 A2 net12 VSS nmos_rvt w=81.0n l=20n nfin=3
MM3 Y B net12 VSS nmos_rvt w=81.0n l=20n nfin=3
MM0 net25 A1 Y VSS nmos_rvt w=81.0n l=20n nfin=3
MM2 net12 C VSS VSS nmos_rvt w=81.0n l=20n nfin=3
.ENDS


.SUBCKT AND2x2_ASAP7_75t_R A B VDD VSS Y
MM4 Y net10 VDD VDD pmos_rvt w=162.00n l=20n nfin=6
MM1 VDD B net10 VDD pmos_rvt w=54.0n l=20n nfin=2
MM0 net10 A VDD VDD pmos_rvt w=54.0n l=20n nfin=2
MM5 Y net10 VSS VSS nmos_rvt w=162.00n l=20n nfin=6
MM3 VSS A net20 VSS nmos_rvt w=81.0n l=20n nfin=3
MM2 net20 B net10 VSS nmos_rvt w=81.0n l=20n nfin=3
.ENDS


.SUBCKT AND2x4_ASAP7_75t_R A B VDD VSS Y
MM4 Y net9 VDD VDD pmos_rvt w=324.00n l=20n nfin=12
MM1 VDD B net9 VDD pmos_rvt w=108.00n l=20n nfin=4
MM0 VDD A net9 VDD pmos_rvt w=108.00n l=20n nfin=4
MM5 VSS net9 Y VSS nmos_rvt w=324.00n l=20n nfin=12
MM3 net19 A VSS VSS nmos_rvt w=162.00n l=20n nfin=6
MM2 net9 B net19 VSS nmos_rvt w=162.00n l=20n nfin=6
.ENDS


.SUBCKT AND2x6_ASAP7_75t_R A B VDD VSS Y
MM4 Y net9 VDD VDD pmos_rvt w=486.00n l=20n nfin=18
MM1 net9 B VDD VDD pmos_rvt w=108.00n l=20n nfin=4
MM0 net9 A VDD VDD pmos_rvt w=108.00n l=20n nfin=4
MM5 Y net9 VSS VSS nmos_rvt w=486.00n l=20n nfin=18
MM3 VSS A net19 VSS nmos_rvt w=162.00n l=20n nfin=6
MM2 net9 B net19 VSS nmos_rvt w=162.00n l=20n nfin=6
.ENDS


.SUBCKT AND3x1_ASAP7_75t_R A B C VDD VSS Y
MM6 Y net61 VDD VDD pmos_rvt w=81.0n l=20n nfin=3
MM5 net61 C VDD VDD pmos_rvt w=81.0n l=20n nfin=3
MM4 net61 B VDD VDD pmos_rvt w=81.0n l=20n nfin=3
MM3 net61 A VDD VDD pmos_rvt w=81.0n l=20n nfin=3
MM7 Y net61 VSS VSS nmos_rvt w=81.0n l=20n nfin=3
MM0 net72 A net61 VSS nmos_rvt w=81.0n l=20n nfin=3
MM1 net71 B net72 VSS nmos_rvt w=81.0n l=20n nfin=3
MM2 VSS C net71 VSS nmos_rvt w=81.0n l=20n nfin=3
.ENDS


.SUBCKT AND3x2_ASAP7_75t_R A B C VDD VSS Y
MM6 VDD net61 Y VDD pmos_rvt w=162.00n l=20n nfin=6
MM5 VDD C net61 VDD pmos_rvt w=81.0n l=20n nfin=3
MM4 VDD B net61 VDD pmos_rvt w=81.0n l=20n nfin=3
MM3 VDD A net61 VDD pmos_rvt w=81.0n l=20n nfin=3
MM7 Y net61 VSS VSS nmos_rvt w=162.00n l=20n nfin=6
MM0 net72 A net61 VSS nmos_rvt w=81.0n l=20n nfin=3
MM1 net71 B net72 VSS nmos_rvt w=81.0n l=20n nfin=3
MM2 VSS C net71 VSS nmos_rvt w=81.0n l=20n nfin=3
.ENDS


.SUBCKT AND3x4_ASAP7_75t_R A B C VDD VSS Y
MM6 VDD net83 Y VDD pmos_rvt w=324.00n l=20n nfin=12
MM5 net83 C VDD VDD pmos_rvt w=81.0n l=20n nfin=3
MM4 net83 B VDD VDD pmos_rvt w=81.0n l=20n nfin=3
MM3 net83 A VDD VDD pmos_rvt w=81.0n l=20n nfin=3
MM7 VSS net83 Y VSS nmos_rvt w=324.00n l=20n nfin=12
MM0 net83 A net89 VSS nmos_rvt w=162.00n l=20n nfin=6
MM1 net90 B net89 VSS nmos_rvt w=162.00n l=20n nfin=6
MM2 VSS C net90 VSS nmos_rvt w=162.00n l=20n nfin=6
.ENDS


.SUBCKT AND4x1_ASAP7_75t_R A B C D VDD VSS Y
MM8 Y net12 VDD VDD pmos_rvt w=81.0n l=20n nfin=3
MM7 net12 A VDD VDD pmos_rvt w=81.0n l=20n nfin=3
MM6 net12 B VDD VDD pmos_rvt w=81.0n l=20n nfin=3
MM2 net12 C VDD VDD pmos_rvt w=81.0n l=20n nfin=3
MM1 net12 D VDD VDD pmos_rvt w=81.0n l=20n nfin=3
MM9 Y net12 VSS VSS nmos_rvt w=81.0n l=20n nfin=3
MM5 VSS A pd3 VSS nmos_rvt w=81.0n l=20n nfin=3
MM3 pd3 B pd2 VSS nmos_rvt w=81.0n l=20n nfin=3
MM4 pd2 C pd1 VSS nmos_rvt w=81.0n l=20n nfin=3
MM0 pd1 D net12 VSS nmos_rvt w=81.0n l=20n nfin=3
.ENDS


.SUBCKT AND4x2_ASAP7_75t_R A B C D VDD VSS Y
MM5 VDD A net33 VDD pmos_rvt w=81.0n l=20n nfin=3
MM4 net33 B VDD VDD pmos_rvt w=81.0n l=20n nfin=3
MM3 net33 C VDD VDD pmos_rvt w=81.0n l=20n nfin=3
MM2 VDD D net33 VDD pmos_rvt w=81.0n l=20n nfin=3
MM1 Y net33 VDD VDD pmos_rvt w=162.00n l=20n nfin=6
MM9 VSS D net15 VSS nmos_rvt w=81.0n l=20n nfin=3
MM8 net16 C net15 VSS nmos_rvt w=81.0n l=20n nfin=3
MM7 net16 B net17 VSS nmos_rvt w=81.0n l=20n nfin=3
MM6 net17 A net33 VSS nmos_rvt w=81.0n l=20n nfin=3
MM0 VSS net33 Y VSS nmos_rvt w=162.00n l=20n nfin=6
.ENDS


.SUBCKT AND5x1_ASAP7_75t_R A B C D E VDD VSS Y
MM11 Y net011 VSS VSS nmos_rvt w=81.0n l=20n nfin=3
MM6 VSS E net29 VSS nmos_rvt w=81.0n l=20n nfin=3
MM5 net30 D net29 VSS nmos_rvt w=81.0n l=20n nfin=3
MM4 net024 B net023 VSS nmos_rvt w=81.0n l=20n nfin=3
MM0 net024 A net011 VSS nmos_rvt w=81.0n l=20n nfin=3
MM3 net30 C net023 VSS nmos_rvt w=81.0n l=20n nfin=3
MM9 net011 E VDD VDD pmos_rvt w=54.0n l=20n nfin=2
MM8 net011 D VDD VDD pmos_rvt w=54.0n l=20n nfin=2
MM7 VDD C net011 VDD pmos_rvt w=54.0n l=20n nfin=2
MM2 VDD B net011 VDD pmos_rvt w=54.0n l=20n nfin=2
MM1 VDD net011 Y VDD pmos_rvt w=81.0n l=20n nfin=3
MM10 net011 A VDD VDD pmos_rvt w=54.0n l=20n nfin=2
.ENDS


.SUBCKT AND5x2_ASAP7_75t_R A B C D E VDD VSS Y
MM1 Y net14 VDD VDD pmos_rvt w=162.00n l=20n nfin=6
MM9 VDD E net14 VDD pmos_rvt w=81.0n l=20n nfin=3
MM7 VDD B net14 VDD pmos_rvt w=81.0n l=20n nfin=3
MM2 VDD D net14 VDD pmos_rvt w=81.0n l=20n nfin=3
MM8 net14 C VDD VDD pmos_rvt w=81.0n l=20n nfin=3
MM10 net14 A VDD VDD pmos_rvt w=81.0n l=20n nfin=3
MM11 Y net14 VSS VSS nmos_rvt w=162.00n l=20n nfin=6
MM6 net33 E VSS VSS nmos_rvt w=162.00n l=20n nfin=6
MM5 net33 D net34 VSS nmos_rvt w=162.00n l=20n nfin=6
MM4 net32 B net35 VSS nmos_rvt w=162.00n l=20n nfin=6
MM0 net14 A net32 VSS nmos_rvt w=162.00n l=20n nfin=6
MM3 net35 C net34 VSS nmos_rvt w=162.00n l=20n nfin=6
.ENDS


.SUBCKT AO211x2_ASAP7_75t_R A1 A2 B C VDD VSS Y
MM8 VSS net014 Y VSS nmos_rvt w=162.00n l=20n nfin=6
MM4 net014 C VSS VSS nmos_rvt w=54.0n l=20n nfin=2
MM3 VSS B net014 VSS nmos_rvt w=54.0n l=20n nfin=2
MM2 VSS A2 net23 VSS nmos_rvt w=81.0n l=20n nfin=3
MM24 net23 A1 net014 VSS nmos_rvt w=81.0n l=20n nfin=3
MM7 Y net014 VDD VDD pmos_rvt w=162.00n l=20n nfin=6
MM6 net014 C net22 VDD pmos_rvt w=162.00n l=20n nfin=6
MM5 net20 B net22 VDD pmos_rvt w=162.00n l=20n nfin=6
MM1 net20 A2 VDD VDD pmos_rvt w=162.00n l=20n nfin=6
MM25 VDD A1 net20 VDD pmos_rvt w=162.00n l=20n nfin=6
.ENDS


.SUBCKT AO21x1_ASAP7_75t_R A1 A2 B VDD VSS Y
MM7 Y net16 VSS VSS nmos_rvt w=81.0n l=20n nfin=3
MM4 net16 B VSS VSS nmos_rvt w=81.0n l=20n nfin=3
MM3 net29 A1 net16 VSS nmos_rvt w=81.0n l=20n nfin=3
MM2 net29 A2 VSS VSS nmos_rvt w=81.0n l=20n nfin=3
MM8 Y net16 VDD VDD pmos_rvt w=81.0n l=20n nfin=3
MM5 net16 A2 net18 VDD pmos_rvt w=81.0n l=20n nfin=3
MM0 VDD B net18 VDD pmos_rvt w=81.0n l=20n nfin=3
MM1 net18 A1 net16 VDD pmos_rvt w=81.0n l=20n nfin=3
.ENDS


.SUBCKT AO21x2_ASAP7_75t_R A1 A2 B VDD VSS Y
MM7 Y net16 VSS VSS nmos_rvt w=162.00n l=20n nfin=6
MM4 net16 B VSS VSS nmos_rvt w=81.0n l=20n nfin=3
MM3 net29 A1 net16 VSS nmos_rvt w=81.0n l=20n nfin=3
MM2 VSS A2 net29 VSS nmos_rvt w=81.0n l=20n nfin=3
MM8 VDD net16 Y VDD pmos_rvt w=162.00n l=20n nfin=6
MM5 net18 A2 net16 VDD pmos_rvt w=81.0n l=20n nfin=3
MM0 VDD B net18 VDD pmos_rvt w=81.0n l=20n nfin=3
MM1 net18 A1 net16 VDD pmos_rvt w=81.0n l=20n nfin=3
.ENDS


.SUBCKT AO221x1_ASAP7_75t_R A1 A2 B1 B2 C VDD VSS Y
MM4 VSS yn Y VSS nmos_rvt w=81.0n l=20n nfin=3
MM28 VSS C yn VSS nmos_rvt w=54.0n l=20n nfin=2
MM27 net23 B2 VSS VSS nmos_rvt w=54.0n l=20n nfin=2
MM26 yn B1 net23 VSS nmos_rvt w=54.0n l=20n nfin=2
MM2 net24 A1 yn VSS nmos_rvt w=54.0n l=20n nfin=2
MM0 VSS A2 net24 VSS nmos_rvt w=54.0n l=20n nfin=2
MM3 VDD yn Y VDD pmos_rvt w=81.0n l=20n nfin=3
MM1 s1 C s2 VDD pmos_rvt w=81.0n l=20n nfin=3
MM32 s2 B2 yn VDD pmos_rvt w=81.0n l=20n nfin=3
MM31 VDD A2 s1 VDD pmos_rvt w=81.0n l=20n nfin=3
MM30 yn B1 s2 VDD pmos_rvt w=81.0n l=20n nfin=3
MM29 s1 A1 VDD VDD pmos_rvt w=81.0n l=20n nfin=3
.ENDS


.SUBCKT AO221x2_ASAP7_75t_R A1 A2 B1 B2 C VDD VSS Y
MM4 VSS yn Y VSS nmos_rvt w=162.00n l=20n nfin=6
MM28 yn C VSS VSS nmos_rvt w=54.0n l=20n nfin=2
MM27 VSS B2 net23 VSS nmos_rvt w=54.0n l=20n nfin=2
MM26 net23 B1 yn VSS nmos_rvt w=54.0n l=20n nfin=2
MM2 yn A1 net24 VSS nmos_rvt w=54.0n l=20n nfin=2
MM0 net24 A2 VSS VSS nmos_rvt w=54.0n l=20n nfin=2
MM3 VDD yn Y VDD pmos_rvt w=162.00n l=20n nfin=6
MM1 s2 C s1 VDD pmos_rvt w=81.0n l=20n nfin=3
MM32 s2 B2 yn VDD pmos_rvt w=81.0n l=20n nfin=3
MM31 s1 A2 VDD VDD pmos_rvt w=81.0n l=20n nfin=3
MM30 yn B1 s2 VDD pmos_rvt w=81.0n l=20n nfin=3
MM29 s1 A1 VDD VDD pmos_rvt w=81.0n l=20n nfin=3
.ENDS


.SUBCKT AO222x2_ASAP7_75t_R A1 A2 B1 B2 C1 C2 VDD VSS Y
MM8 VDD net23 Y VDD pmos_rvt w=162.00n l=20n nfin=6
MM5 net17 C2 net23 VDD pmos_rvt w=81.0n l=20n nfin=3
MM4 net18 B2 net17 VDD pmos_rvt w=81.0n l=20n nfin=3
MM3 net18 A2 VDD VDD pmos_rvt w=81.0n l=20n nfin=3
MM2 net17 C1 net23 VDD pmos_rvt w=81.0n l=20n nfin=3
MM1 net18 B1 net17 VDD pmos_rvt w=81.0n l=20n nfin=3
MM0 VDD A1 net18 VDD pmos_rvt w=81.0n l=20n nfin=3
MM14 net37 B2 VSS VSS nmos_rvt w=81.0n l=20n nfin=3
MM13 net37 B1 net23 VSS nmos_rvt w=81.0n l=20n nfin=3
MM11 net36 C2 VSS VSS nmos_rvt w=81.0n l=20n nfin=3
MM10 net23 C1 net36 VSS nmos_rvt w=81.0n l=20n nfin=3
MM9 VSS net23 Y VSS nmos_rvt w=162.00n l=20n nfin=6
MM7 VSS A2 net38 VSS nmos_rvt w=81.0n l=20n nfin=3
MM6 net23 A1 net38 VSS nmos_rvt w=81.0n l=20n nfin=3
.ENDS


.SUBCKT AO22x1_ASAP7_75t_R A1 A2 B1 B2 VDD VSS Y
MM5 net13 B2 net18 VDD pmos_rvt w=54.0n l=20n nfin=2
MM4 net13 B1 net18 VDD pmos_rvt w=54.0n l=20n nfin=2
MM3 net13 A2 VDD VDD pmos_rvt w=54.0n l=20n nfin=2
MM1 Y net18 VDD VDD pmos_rvt w=81.0n l=20n nfin=3
MM2 VDD A1 net13 VDD pmos_rvt w=54.0n l=20n nfin=2
MM9 net29 B1 VSS VSS nmos_rvt w=54.0n l=20n nfin=2
MM8 net30 A1 VSS VSS nmos_rvt w=54.0n l=20n nfin=2
MM7 net29 B2 net18 VSS nmos_rvt w=54.0n l=20n nfin=2
MM6 net30 A2 net18 VSS nmos_rvt w=54.0n l=20n nfin=2
MM0 VSS net18 Y VSS nmos_rvt w=81.0n l=20n nfin=3
.ENDS


.SUBCKT AO22x2_ASAP7_75t_R A1 A2 B1 B2 VDD VSS Y
MM5 net13 B2 net18 VDD pmos_rvt w=81.0n l=20n nfin=3
MM4 net13 B1 net18 VDD pmos_rvt w=81.0n l=20n nfin=3
MM3 net13 A2 VDD VDD pmos_rvt w=81.0n l=20n nfin=3
MM1 Y net18 VDD VDD pmos_rvt w=162.00n l=20n nfin=6
MM2 net13 A1 VDD VDD pmos_rvt w=81.0n l=20n nfin=3
MM9 VSS B1 net29 VSS nmos_rvt w=81.0n l=20n nfin=3
MM8 VSS A1 net30 VSS nmos_rvt w=81.0n l=20n nfin=3
MM7 net29 B2 net18 VSS nmos_rvt w=81.0n l=20n nfin=3
MM6 net18 A2 net30 VSS nmos_rvt w=81.0n l=20n nfin=3
MM0 VSS net18 Y VSS nmos_rvt w=162.00n l=20n nfin=6
.ENDS


.SUBCKT AO31x2_ASAP7_75t_R A1 A2 A3 B VDD VSS Y
MM0 VSS net18 Y VSS nmos_rvt w=162.00n l=20n nfin=6
MM5 VSS B net18 VSS nmos_rvt w=54.0n l=20n nfin=2
MM4 VSS A3 net29 VSS nmos_rvt w=162.00n l=20n nfin=6
MM2 net30 A1 net18 VSS nmos_rvt w=162.00n l=20n nfin=6
MM3 net29 A2 net30 VSS nmos_rvt w=162.00n l=20n nfin=6
MM1 Y net18 VDD VDD pmos_rvt w=162.00n l=20n nfin=6
MM9 net23 B net18 VDD pmos_rvt w=162.00n l=20n nfin=6
MM10 net23 A3 VDD VDD pmos_rvt w=162.00n l=20n nfin=6
MM7 net23 A2 VDD VDD pmos_rvt w=162.00n l=20n nfin=6
MM6 VDD A1 net23 VDD pmos_rvt w=162.00n l=20n nfin=6
.ENDS


.SUBCKT AO322x2_ASAP7_75t_R A1 A2 A3 B1 B2 C1 C2 VDD VSS Y
MM16 Y net25 VSS VSS nmos_rvt w=162.00n l=20n nfin=6
MM6 net50 C2 VSS VSS nmos_rvt w=54.0n l=20n nfin=2
MM5 net25 C1 net50 VSS nmos_rvt w=54.0n l=20n nfin=2
MM4 net51 B2 VSS VSS nmos_rvt w=54.0n l=20n nfin=2
MM3 net25 B1 net51 VSS nmos_rvt w=54.0n l=20n nfin=2
MM2 VSS A3 net52 VSS nmos_rvt w=81.0n l=20n nfin=3
MM1 net52 A2 net49 VSS nmos_rvt w=81.0n l=20n nfin=3
MM0 net49 A1 net25 VSS nmos_rvt w=81.0n l=20n nfin=3
MM17 VDD net25 Y VDD pmos_rvt w=162.00n l=20n nfin=6
MM13 VDD A3 net27 VDD pmos_rvt w=81.0n l=20n nfin=3
MM12 net53 C2 net25 VDD pmos_rvt w=81.0n l=20n nfin=3
MM11 net53 B2 net27 VDD pmos_rvt w=81.0n l=20n nfin=3
MM10 VDD A2 net27 VDD pmos_rvt w=81.0n l=20n nfin=3
MM9 net25 C1 net53 VDD pmos_rvt w=81.0n l=20n nfin=3
MM8 net27 B1 net53 VDD pmos_rvt w=81.0n l=20n nfin=3
MM7 VDD A1 net27 VDD pmos_rvt w=81.0n l=20n nfin=3
.ENDS


.SUBCKT AO32x1_ASAP7_75t_R A1 A2 A3 B1 B2 VDD VSS Y
MM21 Y net08 VSS VSS nmos_rvt w=81.0n l=20n nfin=3
MM0 net08 A1 net24 VSS nmos_rvt w=81.0n l=20n nfin=3
MM2 net24 A2 net25 VSS nmos_rvt w=81.0n l=20n nfin=3
MM3 net25 A3 VSS VSS nmos_rvt w=81.0n l=20n nfin=3
MM18 VSS B2 net26 VSS nmos_rvt w=54.0n l=20n nfin=2
MM13 net26 B1 net08 VSS nmos_rvt w=54.0n l=20n nfin=2
MM20 Y net08 VDD VDD pmos_rvt w=81.0n l=20n nfin=3
MM1 net10 A2 VDD VDD pmos_rvt w=54.0n l=20n nfin=2
MM4 net10 A3 VDD VDD pmos_rvt w=54.0n l=20n nfin=2
MM5 net10 A1 VDD VDD pmos_rvt w=54.0n l=20n nfin=2
MM15 net10 B2 net08 VDD pmos_rvt w=54.0n l=20n nfin=2
MM14 net08 B1 net10 VDD pmos_rvt w=54.0n l=20n nfin=2
.ENDS


.SUBCKT AO32x2_ASAP7_75t_R A1 A2 A3 B1 B2 VDD VSS Y
MM21 Y net08 VSS VSS nmos_rvt w=162.00n l=20n nfin=6
MM0 net08 A1 net24 VSS nmos_rvt w=81.0n l=20n nfin=3
MM2 net25 A2 net24 VSS nmos_rvt w=81.0n l=20n nfin=3
MM3 net25 A3 VSS VSS nmos_rvt w=81.0n l=20n nfin=3
MM18 VSS B2 net26 VSS nmos_rvt w=54.0n l=20n nfin=2
MM13 net26 B1 net08 VSS nmos_rvt w=54.0n l=20n nfin=2
MM20 Y net08 VDD VDD pmos_rvt w=162.00n l=20n nfin=6
MM1 net10 A2 VDD VDD pmos_rvt w=54.0n l=20n nfin=2
MM4 VDD A3 net10 VDD pmos_rvt w=54.0n l=20n nfin=2
MM5 VDD A1 net10 VDD pmos_rvt w=54.0n l=20n nfin=2
MM15 net08 B2 net10 VDD pmos_rvt w=54.0n l=20n nfin=2
MM14 net10 B1 net08 VDD pmos_rvt w=54.0n l=20n nfin=2
.ENDS


.SUBCKT AO331x1_ASAP7_75t_R A1 A2 A3 B1 B2 B3 C VDD VSS Y
MM0 Y yb VDD VDD pmos_rvt w=81.0n l=20n nfin=3
MM23 net24 B3 net034 VDD pmos_rvt w=81.0n l=20n nfin=3
MM26 VDD A3 net034 VDD pmos_rvt w=81.0n l=20n nfin=3
MM21 net24 B2 net034 VDD pmos_rvt w=81.0n l=20n nfin=3
MM25 net034 A2 VDD VDD pmos_rvt w=81.0n l=20n nfin=3
MM27 yb C net24 VDD pmos_rvt w=81.0n l=20n nfin=3
MM20 net034 B1 net24 VDD pmos_rvt w=81.0n l=20n nfin=3
MM24 net034 A1 VDD VDD pmos_rvt w=81.0n l=20n nfin=3
MM1 VSS yb Y VSS nmos_rvt w=81.0n l=20n nfin=3
MM22 VSS C yb VSS nmos_rvt w=81.0n l=20n nfin=3
MM19 net31 B3 VSS VSS nmos_rvt w=81.0n l=20n nfin=3
MM18 net31 B2 net32 VSS nmos_rvt w=81.0n l=20n nfin=3
MM17 net32 B1 yb VSS nmos_rvt w=81.0n l=20n nfin=3
MM16 n2 A3 VSS VSS nmos_rvt w=81.0n l=20n nfin=3
MM15 n2 A2 n1 VSS nmos_rvt w=81.0n l=20n nfin=3
MM14 n1 A1 yb VSS nmos_rvt w=81.0n l=20n nfin=3
.ENDS


.SUBCKT AO331x2_ASAP7_75t_R A1 A2 A3 B1 B2 B3 C VDD VSS Y
MM0 Y yb VDD VDD pmos_rvt w=162.00n l=20n nfin=6
MM23 net24 B3 net034 VDD pmos_rvt w=81.0n l=20n nfin=3
MM26 VDD A3 net034 VDD pmos_rvt w=81.0n l=20n nfin=3
MM21 net034 B2 net24 VDD pmos_rvt w=81.0n l=20n nfin=3
MM25 VDD A2 net034 VDD pmos_rvt w=81.0n l=20n nfin=3
MM27 yb C net24 VDD pmos_rvt w=81.0n l=20n nfin=3
MM20 net24 B1 net034 VDD pmos_rvt w=81.0n l=20n nfin=3
MM24 net034 A1 VDD VDD pmos_rvt w=81.0n l=20n nfin=3
MM1 VSS yb Y VSS nmos_rvt w=162.00n l=20n nfin=6
MM22 VSS C yb VSS nmos_rvt w=81.0n l=20n nfin=3
MM19 net31 B3 VSS VSS nmos_rvt w=81.0n l=20n nfin=3
MM18 net32 B2 net31 VSS nmos_rvt w=81.0n l=20n nfin=3
MM17 yb B1 net32 VSS nmos_rvt w=81.0n l=20n nfin=3
MM16 n2 A3 VSS VSS nmos_rvt w=81.0n l=20n nfin=3
MM15 n1 A2 n2 VSS nmos_rvt w=81.0n l=20n nfin=3
MM14 n1 A1 yb VSS nmos_rvt w=81.0n l=20n nfin=3
.ENDS


.SUBCKT AO332x1_ASAP7_75t_R A1 A2 A3 B1 B2 B3 C1 C2 VDD VSS Y
MM17 net018 C1 net061 VSS nmos_rvt w=81.0n l=20n nfin=3
MM16 VSS C2 net061 VSS nmos_rvt w=81.0n l=20n nfin=3
MM13 Y net018 VSS VSS nmos_rvt w=81.0n l=20n nfin=3
MM12 net018 B1 net063 VSS nmos_rvt w=81.0n l=20n nfin=3
MM11 net064 B2 net063 VSS nmos_rvt w=81.0n l=20n nfin=3
MM10 VSS B3 net064 VSS nmos_rvt w=81.0n l=20n nfin=3
MM3 VSS A3 net25 VSS nmos_rvt w=81.0n l=20n nfin=3
MM14 net018 A1 net26 VSS nmos_rvt w=81.0n l=20n nfin=3
MM2 net25 A2 net26 VSS nmos_rvt w=81.0n l=20n nfin=3
MM15 Y net018 VDD VDD pmos_rvt w=81.0n l=20n nfin=3
MM9 net031 A1 VDD VDD pmos_rvt w=81.0n l=20n nfin=3
MM8 VDD A2 net031 VDD pmos_rvt w=81.0n l=20n nfin=3
MM7 net031 A3 VDD VDD pmos_rvt w=81.0n l=20n nfin=3
MM6 net031 B1 net030 VDD pmos_rvt w=81.0n l=20n nfin=3
MM1 net030 C1 net018 VDD pmos_rvt w=81.0n l=20n nfin=3
MM5 net030 B2 net031 VDD pmos_rvt w=81.0n l=20n nfin=3
MM4 net030 B3 net031 VDD pmos_rvt w=81.0n l=20n nfin=3
MM0 net030 C2 net018 VDD pmos_rvt w=81.0n l=20n nfin=3
.ENDS


.SUBCKT AO332x2_ASAP7_75t_R A1 A2 A3 B1 B2 B3 C1 C2 VDD VSS Y
MM17 net061 C1 net018 VSS nmos_rvt w=81.0n l=20n nfin=3
MM16 VSS C2 net061 VSS nmos_rvt w=81.0n l=20n nfin=3
MM13 VSS net018 Y VSS nmos_rvt w=162.00n l=20n nfin=6
MM12 net018 B1 net063 VSS nmos_rvt w=81.0n l=20n nfin=3
MM11 net063 B2 net064 VSS nmos_rvt w=81.0n l=20n nfin=3
MM10 VSS B3 net064 VSS nmos_rvt w=81.0n l=20n nfin=3
MM3 net25 A3 VSS VSS nmos_rvt w=81.0n l=20n nfin=3
MM14 net018 A1 net26 VSS nmos_rvt w=81.0n l=20n nfin=3
MM2 net25 A2 net26 VSS nmos_rvt w=81.0n l=20n nfin=3
MM15 VDD net018 Y VDD pmos_rvt w=162.00n l=20n nfin=6
MM9 VDD A1 net031 VDD pmos_rvt w=81.0n l=20n nfin=3
MM8 net031 A2 VDD VDD pmos_rvt w=81.0n l=20n nfin=3
MM7 net031 A3 VDD VDD pmos_rvt w=81.0n l=20n nfin=3
MM6 net030 B1 net031 VDD pmos_rvt w=81.0n l=20n nfin=3
MM1 net018 C1 net030 VDD pmos_rvt w=81.0n l=20n nfin=3
MM5 net030 B2 net031 VDD pmos_rvt w=81.0n l=20n nfin=3
MM4 net031 B3 net030 VDD pmos_rvt w=81.0n l=20n nfin=3
MM0 net030 C2 net018 VDD pmos_rvt w=81.0n l=20n nfin=3
.ENDS


.SUBCKT AO333x1_ASAP7_75t_R A1 A2 A3 B1 B2 B3 C1 C2 C3 VDD VSS Y
MM3 VSS net40 Y VSS nmos_rvt w=81.0n l=20n nfin=3
MM0 net40 C1 net55 VSS nmos_rvt w=81.0n l=20n nfin=3
MM1 net55 C2 net54 VSS nmos_rvt w=81.0n l=20n nfin=3
MM2 net54 C3 VSS VSS nmos_rvt w=81.0n l=20n nfin=3
MM19 net58 A3 VSS VSS nmos_rvt w=81.0n l=20n nfin=3
MM18 net58 A2 net59 VSS nmos_rvt w=81.0n l=20n nfin=3
MM14 net59 A1 net40 VSS nmos_rvt w=81.0n l=20n nfin=3
MM10 net56 B3 net40 VSS nmos_rvt w=81.0n l=20n nfin=3
MM9 net56 B2 net57 VSS nmos_rvt w=81.0n l=20n nfin=3
MM8 net57 B1 VSS VSS nmos_rvt w=81.0n l=20n nfin=3
MM7 net22 C1 net40 VDD pmos_rvt w=81.0n l=20n nfin=3
MM6 net40 C2 net22 VDD pmos_rvt w=81.0n l=20n nfin=3
MM5 net22 C3 net40 VDD pmos_rvt w=81.0n l=20n nfin=3
MM4 Y net40 VDD VDD pmos_rvt w=81.0n l=20n nfin=3
MM17 net24 A3 VDD VDD pmos_rvt w=81.0n l=20n nfin=3
MM16 net24 A2 VDD VDD pmos_rvt w=81.0n l=20n nfin=3
MM15 net24 A1 VDD VDD pmos_rvt w=81.0n l=20n nfin=3
MM13 net22 B3 net24 VDD pmos_rvt w=81.0n l=20n nfin=3
MM12 net24 B2 net22 VDD pmos_rvt w=81.0n l=20n nfin=3
MM11 net22 B1 net24 VDD pmos_rvt w=81.0n l=20n nfin=3
.ENDS


.SUBCKT AO333x2_ASAP7_75t_R A1 A2 A3 B1 B2 B3 C1 C2 C3 VDD VSS Y
MM3 VSS net40 Y VSS nmos_rvt w=162.00n l=20n nfin=6
MM0 net40 C1 net55 VSS nmos_rvt w=81.0n l=20n nfin=3
MM1 net55 C2 net54 VSS nmos_rvt w=81.0n l=20n nfin=3
MM2 net54 C3 VSS VSS nmos_rvt w=81.0n l=20n nfin=3
MM19 net58 A3 VSS VSS nmos_rvt w=81.0n l=20n nfin=3
MM18 net58 A2 net59 VSS nmos_rvt w=81.0n l=20n nfin=3
MM14 net40 A1 net59 VSS nmos_rvt w=81.0n l=20n nfin=3
MM10 net56 B3 net40 VSS nmos_rvt w=81.0n l=20n nfin=3
MM9 net56 B2 net57 VSS nmos_rvt w=81.0n l=20n nfin=3
MM8 net57 B1 VSS VSS nmos_rvt w=81.0n l=20n nfin=3
MM7 net22 C1 net40 VDD pmos_rvt w=81.0n l=20n nfin=3
MM6 net40 C2 net22 VDD pmos_rvt w=81.0n l=20n nfin=3
MM5 net22 C3 net40 VDD pmos_rvt w=81.0n l=20n nfin=3
MM4 VDD net40 Y VDD pmos_rvt w=162.00n l=20n nfin=6
MM17 net24 A3 VDD VDD pmos_rvt w=81.0n l=20n nfin=3
MM16 VDD A2 net24 VDD pmos_rvt w=81.0n l=20n nfin=3
MM15 VDD A1 net24 VDD pmos_rvt w=81.0n l=20n nfin=3
MM13 net24 B3 net22 VDD pmos_rvt w=81.0n l=20n nfin=3
MM12 net24 B2 net22 VDD pmos_rvt w=81.0n l=20n nfin=3
MM11 net22 B1 net24 VDD pmos_rvt w=81.0n l=20n nfin=3
.ENDS


.SUBCKT AO33x2_ASAP7_75t_R A1 A2 A3 B1 B2 B3 VDD VSS Y
MM25 Y net020 VDD VDD pmos_rvt w=162.00n l=20n nfin=6
MM6 net15 B3 net020 VDD pmos_rvt w=54.0n l=20n nfin=2
MM5 net15 A3 VDD VDD pmos_rvt w=54.0n l=20n nfin=2
MM4 VDD A2 net15 VDD pmos_rvt w=54.0n l=20n nfin=2
MM3 net020 B2 net15 VDD pmos_rvt w=54.0n l=20n nfin=2
MM2 net020 B1 net15 VDD pmos_rvt w=54.0n l=20n nfin=2
MM21 net15 A1 VDD VDD pmos_rvt w=54.0n l=20n nfin=2
MM24 VSS net020 Y VSS nmos_rvt w=162.00n l=20n nfin=6
MM10 net020 B1 net39 VSS nmos_rvt w=81.0n l=20n nfin=3
MM9 VSS B3 net022 VSS nmos_rvt w=81.0n l=20n nfin=3
MM8 net39 B2 net022 VSS nmos_rvt w=81.0n l=20n nfin=3
MM7 net40 A1 net020 VSS nmos_rvt w=81.0n l=20n nfin=3
MM1 VSS A3 net024 VSS nmos_rvt w=81.0n l=20n nfin=3
MM0 net024 A2 net40 VSS nmos_rvt w=81.0n l=20n nfin=3
.ENDS


.SUBCKT AOI211x1_ASAP7_75t_R A1 A2 B C VDD VSS Y
MM20 Y C VSS VSS nmos_rvt w=81.0n l=20n nfin=3
MM3 VSS B Y VSS nmos_rvt w=81.0n l=20n nfin=3
MM4 Y A2 net32 VSS nmos_rvt w=81.0n l=20n nfin=3
MM5 net32 A1 VSS VSS nmos_rvt w=81.0n l=20n nfin=3
MM21 VDD A2 net17 VDD pmos_rvt w=162.00n l=20n nfin=6
MM0 net17 A1 VDD VDD pmos_rvt w=162.00n l=20n nfin=6
MM6 net17 B net34 VDD pmos_rvt w=162.00n l=20n nfin=6
MM7 Y C net34 VDD pmos_rvt w=162.00n l=20n nfin=6
.ENDS


.SUBCKT AOI211xp5_ASAP7_75t_R A1 A2 B C VDD VSS Y
MM20 VSS C Y VSS nmos_rvt w=54.0n l=20n nfin=2
MM3 Y B VSS VSS nmos_rvt w=54.0n l=20n nfin=2
MM4 Y A2 net32 VSS nmos_rvt w=54.0n l=20n nfin=2
MM5 net32 A1 VSS VSS nmos_rvt w=54.0n l=20n nfin=2
MM21 net17 A2 VDD VDD pmos_rvt w=81.0n l=20n nfin=3
MM0 net17 A1 VDD VDD pmos_rvt w=81.0n l=20n nfin=3
MM6 net17 B net34 VDD pmos_rvt w=81.0n l=20n nfin=3
MM7 net34 C Y VDD pmos_rvt w=81.0n l=20n nfin=3
.ENDS


.SUBCKT AOI21x1_ASAP7_75t_R A1 A2 B VDD VSS Y
MM4 Y B VSS VSS nmos_rvt w=108.00n l=20n nfin=4
MM3 net29 A1 Y VSS nmos_rvt w=162.00n l=20n nfin=6
MM2 VSS A2 net29 VSS nmos_rvt w=162.00n l=20n nfin=6
MM5 net18 A2 VDD VDD pmos_rvt w=162.00n l=20n nfin=6
MM0 Y B net18 VDD pmos_rvt w=162.00n l=20n nfin=6
MM1 VDD A1 net18 VDD pmos_rvt w=162.00n l=20n nfin=6
.ENDS


.SUBCKT AOI21xp33_ASAP7_75t_R A1 A2 B VDD VSS Y
MM4 VSS B Y VSS nmos_rvt w=54.0n l=20n nfin=2
MM3 net29 A1 Y VSS nmos_rvt w=54.0n l=20n nfin=2
MM2 VSS A2 net29 VSS nmos_rvt w=54.0n l=20n nfin=2
MM5 VDD A2 net18 VDD pmos_rvt w=54.0n l=20n nfin=2
MM0 net18 B Y VDD pmos_rvt w=54.0n l=20n nfin=2
MM1 VDD A1 net18 VDD pmos_rvt w=54.0n l=20n nfin=2
.ENDS


.SUBCKT AOI21xp5_ASAP7_75t_R A1 A2 B VDD VSS Y
MM4 Y B VSS VSS nmos_rvt w=54.0n l=20n nfin=2
MM3 Y A1 net29 VSS nmos_rvt w=81.0n l=20n nfin=3
MM2 net29 A2 VSS VSS nmos_rvt w=81.0n l=20n nfin=3
MM5 net18 A2 VDD VDD pmos_rvt w=81.0n l=20n nfin=3
MM0 net18 B Y VDD pmos_rvt w=81.0n l=20n nfin=3
MM1 net18 A1 VDD VDD pmos_rvt w=81.0n l=20n nfin=3
.ENDS


.SUBCKT AOI221x1_ASAP7_75t_R A1 A2 B1 B2 C VDD VSS Y
MM28 VSS C Y VSS nmos_rvt w=54.0n l=20n nfin=2
MM27 VSS B2 net23 VSS nmos_rvt w=81.0n l=20n nfin=3
MM26 net23 B1 Y VSS nmos_rvt w=81.0n l=20n nfin=3
MM2 Y A1 net24 VSS nmos_rvt w=81.0n l=20n nfin=3
MM0 net24 A2 VSS VSS nmos_rvt w=81.0n l=20n nfin=3
MM1 net16 C Y VDD pmos_rvt w=162.00n l=20n nfin=6
MM32 net10 B2 net16 VDD pmos_rvt w=162.00n l=20n nfin=6
MM31 VDD A2 net10 VDD pmos_rvt w=162.00n l=20n nfin=6
MM30 net10 B1 net16 VDD pmos_rvt w=162.00n l=20n nfin=6
MM29 net10 A1 VDD VDD pmos_rvt w=162.00n l=20n nfin=6
.ENDS


.SUBCKT AOI221xp5_ASAP7_75t_R A1 A2 B1 B2 C VDD VSS Y
MM28 Y C VSS VSS nmos_rvt w=54.0n l=20n nfin=2
MM27 VSS B2 net23 VSS nmos_rvt w=54.0n l=20n nfin=2
MM26 net23 B1 Y VSS nmos_rvt w=54.0n l=20n nfin=2
MM2 Y A1 net24 VSS nmos_rvt w=54.0n l=20n nfin=2
MM0 net24 A2 VSS VSS nmos_rvt w=54.0n l=20n nfin=2
MM1 net16 C net012 VDD pmos_rvt w=81.0n l=20n nfin=3
MM32 net16 B2 Y VDD pmos_rvt w=81.0n l=20n nfin=3
MM31 net012 A2 VDD VDD pmos_rvt w=81.0n l=20n nfin=3
MM30 net16 B1 Y VDD pmos_rvt w=81.0n l=20n nfin=3
MM29 VDD A1 net012 VDD pmos_rvt w=81.0n l=20n nfin=3
.ENDS


.SUBCKT AOI222xp33_ASAP7_75t_R A1 A2 B1 B2 C1 C2 VDD VSS Y
MM6 VSS C2 net50 VSS nmos_rvt w=54.0n l=20n nfin=2
MM5 net50 C1 Y VSS nmos_rvt w=54.0n l=20n nfin=2
MM4 VSS B2 net51 VSS nmos_rvt w=54.0n l=20n nfin=2
MM3 net51 B1 Y VSS nmos_rvt w=54.0n l=20n nfin=2
MM1 net49 A2 VSS VSS nmos_rvt w=54.0n l=20n nfin=2
MM0 net49 A1 Y VSS nmos_rvt w=54.0n l=20n nfin=2
MM12 net53 A2 Y VDD pmos_rvt w=81.0n l=20n nfin=3
MM11 net53 B2 net27 VDD pmos_rvt w=81.0n l=20n nfin=3
MM10 VDD C2 net27 VDD pmos_rvt w=81.0n l=20n nfin=3
MM9 Y A1 net53 VDD pmos_rvt w=81.0n l=20n nfin=3
MM8 net27 B1 net53 VDD pmos_rvt w=81.0n l=20n nfin=3
MM7 VDD C1 net27 VDD pmos_rvt w=81.0n l=20n nfin=3
.ENDS


.SUBCKT AOI22x1_ASAP7_75t_R A1 A2 B1 B2 VDD VSS Y
MM5 Y A2 net13 VDD pmos_rvt w=162.00n l=20n nfin=6
MM4 net13 A1 Y VDD pmos_rvt w=162.00n l=20n nfin=6
MM3 net13 B2 VDD VDD pmos_rvt w=162.00n l=20n nfin=6
MM2 net13 B1 VDD VDD pmos_rvt w=162.00n l=20n nfin=6
MM9 VSS B1 net29 VSS nmos_rvt w=162.00n l=20n nfin=6
MM8 VSS A1 net30 VSS nmos_rvt w=162.00n l=20n nfin=6
MM7 net29 B2 Y VSS nmos_rvt w=162.00n l=20n nfin=6
MM6 Y A2 net30 VSS nmos_rvt w=162.00n l=20n nfin=6
.ENDS


.SUBCKT AOI22xp33_ASAP7_75t_R A1 A2 B1 B2 VDD VSS Y
MM5 Y B2 net13 VDD pmos_rvt w=54.0n l=20n nfin=2
MM4 net13 B1 Y VDD pmos_rvt w=54.0n l=20n nfin=2
MM3 VDD A2 net13 VDD pmos_rvt w=54.0n l=20n nfin=2
MM2 net13 A1 VDD VDD pmos_rvt w=54.0n l=20n nfin=2
MM9 VSS B1 net29 VSS nmos_rvt w=54.0n l=20n nfin=2
MM8 net30 A1 VSS VSS nmos_rvt w=54.0n l=20n nfin=2
MM7 Y B2 net29 VSS nmos_rvt w=54.0n l=20n nfin=2
MM6 Y A2 net30 VSS nmos_rvt w=54.0n l=20n nfin=2
.ENDS


.SUBCKT AOI22xp5_ASAP7_75t_R A1 A2 B1 B2 VDD VSS Y
MM5 Y B2 net13 VDD pmos_rvt w=81.0n l=20n nfin=3
MM4 Y B1 net13 VDD pmos_rvt w=81.0n l=20n nfin=3
MM3 net13 A2 VDD VDD pmos_rvt w=81.0n l=20n nfin=3
MM2 net13 A1 VDD VDD pmos_rvt w=81.0n l=20n nfin=3
MM9 net29 B1 VSS VSS nmos_rvt w=81.0n l=20n nfin=3
MM8 net30 A1 VSS VSS nmos_rvt w=81.0n l=20n nfin=3
MM7 Y B2 net29 VSS nmos_rvt w=81.0n l=20n nfin=3
MM6 Y A2 net30 VSS nmos_rvt w=81.0n l=20n nfin=3
.ENDS


.SUBCKT AOI311xp33_ASAP7_75t_R A1 A2 A3 B C VDD VSS Y
MM0 Y C VSS VSS nmos_rvt w=54.0n l=20n nfin=2
MM5 Y B VSS VSS nmos_rvt w=54.0n l=20n nfin=2
MM4 VSS A3 net29 VSS nmos_rvt w=81.0n l=20n nfin=3
MM2 net30 A1 Y VSS nmos_rvt w=81.0n l=20n nfin=3
MM3 net29 A2 net30 VSS nmos_rvt w=81.0n l=20n nfin=3
MM1 Y C net020 VDD pmos_rvt w=81.0n l=20n nfin=3
MM9 net020 B net23 VDD pmos_rvt w=81.0n l=20n nfin=3
MM10 net23 A3 VDD VDD pmos_rvt w=81.0n l=20n nfin=3
MM7 net23 A2 VDD VDD pmos_rvt w=81.0n l=20n nfin=3
MM6 VDD A1 net23 VDD pmos_rvt w=81.0n l=20n nfin=3
.ENDS


.SUBCKT AOI31xp33_ASAP7_75t_R A1 A2 A3 B VDD VSS Y
MM5 VSS B Y VSS nmos_rvt w=54.0n l=20n nfin=2
MM4 VSS A3 net29 VSS nmos_rvt w=81.0n l=20n nfin=3
MM2 net30 A1 Y VSS nmos_rvt w=81.0n l=20n nfin=3
MM3 net29 A2 net30 VSS nmos_rvt w=81.0n l=20n nfin=3
MM9 Y B net23 VDD pmos_rvt w=54.0n l=20n nfin=2
MM10 VDD A3 net23 VDD pmos_rvt w=54.0n l=20n nfin=2
MM7 VDD A2 net23 VDD pmos_rvt w=54.0n l=20n nfin=2
MM6 net23 A1 VDD VDD pmos_rvt w=54.0n l=20n nfin=2
.ENDS


.SUBCKT AOI31xp67_ASAP7_75t_R A1 A2 A3 B VDD VSS Y
MM5 Y B VSS VSS nmos_rvt w=54.0n l=20n nfin=2
MM4 VSS A3 net29 VSS nmos_rvt w=162.00n l=20n nfin=6
MM2 net30 A1 Y VSS nmos_rvt w=162.00n l=20n nfin=6
MM3 net30 A2 net29 VSS nmos_rvt w=162.00n l=20n nfin=6
MM9 net23 B Y VDD pmos_rvt w=162.00n l=20n nfin=6
MM10 VDD A3 net23 VDD pmos_rvt w=162.00n l=20n nfin=6
MM7 VDD A2 net23 VDD pmos_rvt w=162.00n l=20n nfin=6
MM6 net23 A1 VDD VDD pmos_rvt w=162.00n l=20n nfin=6
.ENDS


.SUBCKT AOI321xp33_ASAP7_75t_R A1 A2 A3 B1 B2 C VDD VSS Y
MM11 Y B2 net026 VSS nmos_rvt w=54.0n l=20n nfin=2
MM0 Y C VSS VSS nmos_rvt w=54.0n l=20n nfin=2
MM5 net026 B1 VSS VSS nmos_rvt w=54.0n l=20n nfin=2
MM4 net29 A3 VSS VSS nmos_rvt w=81.0n l=20n nfin=3
MM2 net30 A1 Y VSS nmos_rvt w=81.0n l=20n nfin=3
MM3 net29 A2 net30 VSS nmos_rvt w=81.0n l=20n nfin=3
MM8 net013 B2 Y VDD pmos_rvt w=81.0n l=20n nfin=3
MM12 net013 C net23 VDD pmos_rvt w=81.0n l=20n nfin=3
MM9 Y B1 net013 VDD pmos_rvt w=81.0n l=20n nfin=3
MM10 net23 A3 VDD VDD pmos_rvt w=81.0n l=20n nfin=3
MM7 VDD A2 net23 VDD pmos_rvt w=81.0n l=20n nfin=3
MM6 net23 A1 VDD VDD pmos_rvt w=81.0n l=20n nfin=3
.ENDS


.SUBCKT AOI322xp5_ASAP7_75t_R A1 A2 A3 B1 B2 C1 C2 VDD VSS Y
MM6 net50 C2 VSS VSS nmos_rvt w=54.0n l=20n nfin=2
MM5 Y C1 net50 VSS nmos_rvt w=54.0n l=20n nfin=2
MM4 VSS B2 net51 VSS nmos_rvt w=54.0n l=20n nfin=2
MM3 net51 B1 Y VSS nmos_rvt w=54.0n l=20n nfin=2
MM2 VSS A3 net52 VSS nmos_rvt w=81.0n l=20n nfin=3
MM1 net52 A2 net49 VSS nmos_rvt w=81.0n l=20n nfin=3
MM0 net49 A1 Y VSS nmos_rvt w=81.0n l=20n nfin=3
MM13 net53 A3 net27 VDD pmos_rvt w=81.0n l=20n nfin=3
MM12 net53 C2 Y VDD pmos_rvt w=81.0n l=20n nfin=3
MM11 net27 A2 net53 VDD pmos_rvt w=81.0n l=20n nfin=3
MM10 VDD B2 net27 VDD pmos_rvt w=81.0n l=20n nfin=3
MM9 net53 C1 Y VDD pmos_rvt w=81.0n l=20n nfin=3
MM8 net53 A1 net27 VDD pmos_rvt w=81.0n l=20n nfin=3
MM7 VDD B1 net27 VDD pmos_rvt w=81.0n l=20n nfin=3
.ENDS


.SUBCKT AOI32xp33_ASAP7_75t_R A1 A2 A3 B1 B2 VDD VSS Y
MM0 net24 A1 Y VSS nmos_rvt w=81.0n l=20n nfin=3
MM2 net24 A2 net25 VSS nmos_rvt w=81.0n l=20n nfin=3
MM3 VSS A3 net25 VSS nmos_rvt w=81.0n l=20n nfin=3
MM18 net26 B2 VSS VSS nmos_rvt w=54.0n l=20n nfin=2
MM13 net26 B1 Y VSS nmos_rvt w=54.0n l=20n nfin=2
MM1 VDD A2 net10 VDD pmos_rvt w=54.0n l=20n nfin=2
MM4 VDD A3 net10 VDD pmos_rvt w=54.0n l=20n nfin=2
MM5 VDD A1 net10 VDD pmos_rvt w=54.0n l=20n nfin=2
MM15 net10 B2 Y VDD pmos_rvt w=54.0n l=20n nfin=2
MM14 net10 B1 Y VDD pmos_rvt w=54.0n l=20n nfin=2
.ENDS


.SUBCKT AOI331xp33_ASAP7_75t_R A1 A2 A3 B1 B2 B3 C1 VDD VSS Y
MM17 Y C1 VSS VSS nmos_rvt w=81.0n l=20n nfin=3
MM12 net063 B1 Y VSS nmos_rvt w=81.0n l=20n nfin=3
MM11 net063 B2 net064 VSS nmos_rvt w=81.0n l=20n nfin=3
MM10 net064 B3 VSS VSS nmos_rvt w=81.0n l=20n nfin=3
MM3 VSS A3 net25 VSS nmos_rvt w=81.0n l=20n nfin=3
MM14 net26 A1 Y VSS nmos_rvt w=81.0n l=20n nfin=3
MM2 net25 A2 net26 VSS nmos_rvt w=81.0n l=20n nfin=3
MM9 net031 A1 VDD VDD pmos_rvt w=81.0n l=20n nfin=3
MM8 net031 A2 VDD VDD pmos_rvt w=81.0n l=20n nfin=3
MM7 VDD A3 net031 VDD pmos_rvt w=81.0n l=20n nfin=3
MM6 net030 B1 net031 VDD pmos_rvt w=81.0n l=20n nfin=3
MM1 Y C1 net030 VDD pmos_rvt w=81.0n l=20n nfin=3
MM5 net030 B2 net031 VDD pmos_rvt w=81.0n l=20n nfin=3